Newsgroups: rec.motorcycles
Path: cantaloupe.srv.cs.cmu.edu!crabapple.srv.cs.cmu.edu!bb3.andrew.cmu.edu!news.sei.cmu.edu!fs7.ece.cmu.edu!europa.eng.gtefsd.com!howland.reston.ans.net!zaphod.mps.ohio-state.edu!sdd.hp.com!hplabs!unix.sri.com!hsdndev!dartvax!fluent!fluent!bd
From: bd@fluent@dartmouth.EDU (Brice Dowaliby)
Subject: Re: dogs
In-Reply-To: heathman@ncsa.uiuc.edu's message of Tue, 20 Apr 1993 20:25:24 GMT
Message-ID: <BD.93Apr21150317@bd.UUCP>
Sender: usenet@fluent@dartmouth.EDU
Reply-To: bd%fluent@dartmouth.EDU
Organization: Fluent Inc., Lebanon NH
References: <MS-C.735160298.1147902781.mrc@Ikkoku-Kan.Panda.COM> <C5pntM.8Co@cbnewsj.cb.att.com> <93Apr20.193958.30419@acs.ucalgary.ca> <1993Apr20.202524.23091@ncsa.uiuc.edu>
Distribution: na
Date: 21 Apr 93 15:03:17
Lines: 7

heathman@ncsa.uiuc.edu (Michael Heathman) writes:

>	Professionals who train guard dogs, when polled, gave themselves a
>1 in 4 chance of survival tackling a trained dog unarmed.  A trained guard
>dog is not to be trifled with.  An untrained mutt may be another story.

Of course *they'd* say that.  They're trying to sell their services.
