Newsgroups: rec.motorcycles
Path: cantaloupe.srv.cs.cmu.edu!crabapple.srv.cs.cmu.edu!bb3.andrew.cmu.edu!news.sei.cmu.edu!fs7.ece.cmu.edu!europa.eng.gtefsd.com!howland.reston.ans.net!usc!sdd.hp.com!hplabs!unix.sri.com!hsdndev!dartvax!fluent!fluent!bd
From: bd@fluent@dartmouth.EDU (Brice Dowaliby)
Subject: Re: Good Reasons to Wave at each other
In-Reply-To: mbeaving@bnr.ca's message of Tue, 20 Apr 1993 18:45:30 GMT
Message-ID: <BD.93Apr21150156@bd.UUCP>
Sender: usenet@fluent@dartmouth.EDU
Reply-To: bd%fluent@dartmouth.EDU
Organization: Fluent Inc., Lebanon NH
References: <222834@mavenry.altcit.eskimo.com> <1993Apr20.184530.16043@bnr.ca>
Distribution: na
Date: 21 Apr 93 15:01:56
Lines: 7

mbeaving@bnr.ca (Michael Beavington) writes:

>The down side is that when I'm in my cage, I have on numerous occasions
>slammed my hand into the rolled up window in an effort to wave at
>a passing biker.  Ow.

Shouldn't this be in the DWI thread?
